FullModel/wecc179.raw
 0,    100.00, 30, 0, 0, 60.00       / September 26, 2011 13:37:29
                               100.0                                            
                                                                                
    2,'CORONADO    ', 500.0000,1,     0.000,     0.000,   1,   0,0.9794688, -26.17638,   1
    3,'CHOLLA      ', 345.0000,1,     0.000,     0.000,   1,   0,0.9774370, -16.96214,   1
    4,'CORONADO    ',  20.0000,2,     0.000,     0.000,   1,   0,1.0400000, -19.66077,   1
    5,'CRAIG       ', 345.0000,1,     0.000,     0.000,   1,   0,0.9751753,  16.27362,   1
    6,'CRAIG       ',  22.0000,2,     0.000,     0.000,   1,   0,0.9500000,  23.55166,   1
    7,'FOURCORN    ', 500.0000,1,     0.000,  -113.000,   1,   0,1.0681409,  -7.90565,   1
    8,'FOURCORN    ', 345.0000,1,     0.000,  -155.000,   1,   0,1.0091423,  -4.68921,   1
    9,'FCNGN4CC    ',  22.0000,2,     0.000,     0.000,   1,   0,1.0000000,   2.22822,   1
   10,'FOURCORN    ', 230.0000,1,     0.000,     0.000,   1,   0,1.0072631,  -5.23261,   1
   11,'HAYDEN      ',  20.0000,2,     0.000,     0.000,   1,   0,1.0000000,  33.72795,   1
   12,'NAVAJO      ', 500.0000,1,     0.000,  -190.000,   2,   0,1.0720497, -23.93682,   1
   13,'NAVAJO 2    ',  26.0000,2,     0.000,     0.000,   2,   0,1.0000000, -17.81291,   1
   14,'MOENKOPI    ', 500.0000,1,     0.000,  -391.000,   2,   0,1.0673461, -24.85653,   1
   15,'PALOVRD2    ',  24.0000,2,     0.000,     0.000,   2,   0,0.9600000, -21.71558,   1
   16,'PALOVRDE    ', 500.0000,1,     0.000,  -146.000,   2,   0,1.0485553, -29.64234,   1
   17,'SAN JUAN    ', 345.0000,1,     0.000,   390.000,   1,   0,1.0355912,  -3.87624,   1
   18,'SJUAN G4    ',  22.0000,2,     0.000,     0.000,   1,   0,1.0000000,  -0.88892,   1
   19,'WESTWING    ', 500.0000,1,     0.000,  -427.000,   2,   0,1.0559269, -29.59275,   1
   20,'NAVAJO1     ', 500.0000,1,     0.000,     0.000,   2,   0,1.0702449, -22.85174,   1
   21,'NAVAJO2     ', 500.0000,1,     0.000,     0.000,   2,   0,1.0604208, -25.95390,   1
   22,'NAVAJO3     ', 500.0000,1,     0.000,     0.000,   2,   0,1.0469246, -22.12253,   1
   23,'NAVAJO4     ', 500.0000,1,     0.000,     0.000,   2,   0,1.0256356, -31.46032,   1
   24,'MOENKOP1    ', 500.0000,1,     0.000,     0.000,   2,   0,1.0557128, -23.39237,   1
   25,'MOENKOP2    ', 500.0000,1,     0.000,     0.000,   2,   0,1.0411590, -31.08491,   1
   26,'MOENKOP3    ', 500.0000,1,     0.000,     0.000,   2,   0,1.0513114, -15.55171,   1
   27,'MOENKOP4    ', 500.0000,1,     0.000,     0.000,   2,   0,1.0467156, -42.39830,   1
   28,'FOURCOR1    ', 500.0000,1,     0.000,     0.000,   1,   0,1.0658432,  -5.78109,   1
   29,'FOURCOR2    ', 500.0000,1,     0.000,     0.000,   1,   0,1.0693291, -27.98388,   1
   30,'CANAD G1    ',  20.0000,2,     0.000,     0.000,   1,   0,1.0000000,  24.73574,   1
   31,'CANADA      ', 500.0000,1,     0.000,     0.000,   1,   0,1.0363383,  20.94520,   1
   32,'CANALB      ', 500.0000,1,     0.000,     0.000,   1,   0,1.0786108,  49.23409,   1
   33,'CA230TO     ', 230.0000,1,     0.000,     0.000,   1,   0,0.9785464,  53.82290,   1
   34,'CA230       ', 230.0000,1,     0.000,     0.000,   1,   0,1.0011340,  62.87167,   1
   35,'CMAIN GM    ',  20.0000,2,     0.000,     0.000,   1,   0,1.0200000,  67.79278,   1
   36,'BRIDGER2    ',  22.0000,2,     0.000,     0.000,   1,   0,1.0089999,   2.46042,   1
   37,'ADELANTO    ', 500.0000,1,     0.000,   912.000,   2,   0,1.0603145, -42.15701,   1
   38,'ADELAN&1    ', 500.0000,1,     0.000,     0.000,   2,   0,1.0808979, -46.22724,   1
   39,'CASTAIC     ', 230.0000,1,     0.000,     0.000,   2,   0,1.0319496, -47.29174,   1
   40,'CASTAI4G    ',  18.0000,2,     0.000,     0.000,   2,   0,1.0200000, -45.98192,   1
   41,'GLENDAL     ', 230.0000,1,     0.000,     0.000,   2,   0,1.0233743, -50.92400,   1
   42,'HAYNES      ', 230.0000,1,     0.000,     0.000,   2,   0,1.0312889, -50.65362,   1
   43,'HAYNES3G    ',  18.0000,2,     0.000,     0.000,   2,   0,1.0000000, -47.35042,   1
   44,'INTERMT     ', 345.0000,1,     0.000,   430.000,   1,   0,1.0525720,  -4.36770,   1
   45,'INTERM1G    ',  26.0000,2,     0.000,     0.000,   1,   0,1.0500000,   0.27950,   1
   46,'OLIVE       ', 230.0000,1,     0.000,     0.000,   2,   0,1.0347543, -47.63059,   1
   47,'OWENS G     ',  11.5000,2,     0.000,     0.000,   2,   0,1.0200000, -47.26987,   1
   48,'RINALDI     ', 230.0000,1,     0.000,     0.000,   2,   0,1.0340236, -47.84034,   1
   49,'RINALDI     ', 500.0000,1,     0.000,   -80.000,   2,   0,1.0721233, -45.48275,   1
   50,'RIVER       ', 230.0000,1,     0.000,     0.000,   2,   0,1.0236162, -51.84548,   1
   51,'STA B       ', 138.0000,1,     0.000,     0.000,   2,   0,1.0325581, -51.90198,   1
   52,'STA B1      ', 287.0000,1,     0.000,     0.000,   2,   0,1.0366341, -50.71837,   1
   53,'STA B2      ', 287.0000,1,     0.000,     0.000,   2,   0,1.0366341, -50.71837,   1
   54,'STA BLD     ', 230.0000,1,     0.000,     0.000,   2,   0,1.0272753, -52.11021,   1
   55,'STA E       ', 230.0000,1,     0.000,     0.000,   2,   0,1.0251606, -50.05839,   1
   56,'STA E       ', 500.0000,1,     0.000,     0.000,   2,   0,1.0430380, -47.66488,   1
   57,'STA F       ', 230.0000,1,     0.000,     0.000,   2,   0,1.0248405, -51.88057,   1
   58,'STA G       ', 230.0000,1,     0.000,     0.000,   2,   0,1.0239416, -51.17567,   1
   59,'STA J       ', 230.0000,1,     0.000,     0.000,   2,   0,1.0311182, -48.91500,   1
   60,'SYLMARLA    ', 230.0000,1,     0.000,  2146.000,   2,   0,1.0383152, -47.15046,   1
   61,'SYLMAR S    ', 230.0000,1,     0.000,     0.000,   2,   0,1.0207297, -48.25687,   1
   62,'VALLEY      ', 230.0000,1,     0.000,     0.000,   2,   0,1.0292969, -49.03204,   1
   63,'VICTORVL    ', 287.0000,1,     0.000,  -108.000,   2,   0,1.0520861, -44.49414,   1
   64,'VICTORVL    ', 500.0000,1,     0.000,     0.000,   2,   0,1.0586549, -42.47671,   1
   65,'MONTA G1    ',  20.0000,2,     0.000,     0.000,   1,   0,1.0000000,  56.59295,   1
   66,'MONTANA     ', 500.0000,1,     0.000,     0.000,   1,   0,1.0492785,  48.20056,   1
   67,'BIG EDDY    ', 115.0000,1,     0.000,     0.000,   1,   0,1.0686285, -16.93306,   1
   68,'BIG EDDY    ', 230.0000,1,     0.000,   576.850,   1,   0,1.0659113, -14.57037,   1
   69,'BIG EDDY    ', 500.0000,1,     0.000,     0.000,   1,   0,1.0891886, -13.31025,   1
   70,'DALLES21    ',  13.8000,2,     0.000,     0.000,   1,   0,1.0549999,  -7.94051,   1
   71,'CELILO      ', 230.0000,1,     0.000,   792.000,   1,   0,1.0615828, -15.07653,   1
   72,'CELILOCA    ', 500.0000,1,     0.000,   462.000,   1,   0,1.0896387, -13.41834,   1
   73,'COLSTRP     ', 500.0000,1,     0.000,     0.000,   1,   0,1.0783868,  -1.36049,   1
   74,'COULEE      ', 500.0000,1,     0.000,     0.000,   1,   0,1.0699959,   0.16326,   1
   75,'GARRISON    ', 500.0000,1,     0.000,     0.000,   1,   0,1.0370464, -12.15954,   1
   76,'JOHN DAY    ', 500.0000,1,     0.000,  1019.350,   1,   0,1.0828296, -11.12352,   1
   77,'JOHN DAY    ',  13.8000,3,     0.000,     0.000,   1,   0,1.0000000,   0.00000,   1
   78,'HANFORD     ', 500.0000,1,     0.000,   550.000,   1,   0,1.0494604,   0.22449,   1
   79,'NORTH G3    ',  20.0000,2,     0.000,     0.000,   1,   0,1.0000000,  26.58547,   1
   80,'NORTH       ', 500.0000,1,     0.000,  1200.000,   1,   0,1.0499268,  12.10689,   1
   81,'BURNS       ', 500.0000,1,     0.000,  -220.000,   1,   0,1.0529488, -19.55213,   1
   82,'GRIZZLY     ', 500.0000,1,     0.000,  -674.000,   1,   0,1.0673959, -17.14843,   1
   83,'MALIN       ', 500.0000,1,     0.000,  -110.000,   1,   0,1.0543253, -23.34646,   1
   84,'MIDPOINT    ', 500.0000,1,     0.000,  -220.000,   1,   0,1.0619438,  -5.19910,   1
   85,'MIDPOINT    ', 345.0000,1,     0.000,  -870.000,   1,   0,0.9984467,  -1.57178,   1
   86,'SUMMER L    ', 500.0000,1,     0.000,     0.000,   1,   0,1.0581788, -18.23562,   1
   87,'GRIZZLY1    ', 500.0000,1,     0.000,     0.000,   1,   0,1.0653247, -18.74829,   1
   88,'GRIZZLY2    ', 500.0000,1,     0.000,     0.000,   1,   0,1.0714279, -16.01625,   1
   89,'MALIN1      ', 500.0000,1,     0.000,     0.000,   1,   0,1.0506115, -14.13878,   1
   90,'MALIN2      ', 500.0000,1,     0.000,     0.000,   1,   0,1.0608791, -19.80666,   1
   91,'GRIZZLY3    ', 500.0000,1,     0.000,     0.000,   1,   0,1.0799705, -21.79650,   1
   92,'GRIZZLY4    ', 500.0000,1,     0.000,     0.000,   1,   0,1.0694268, -17.22571,   1
   93,'GRIZZLY5    ', 500.0000,1,     0.000,     0.000,   1,   0,1.0685965, -22.44971,   1
   94,'GRIZZLY6    ', 500.0000,1,     0.000,     0.000,   1,   0,1.0716959, -17.86175,   1
   95,'GRIZZLY7    ', 500.0000,1,     0.000,     0.000,   1,   0,1.0792558, -22.05687,   1
   96,'GRIZZLY8    ', 500.0000,1,     0.000,     0.000,   1,   0,1.0691637, -17.22550,   1
   97,'GRIZZLY9    ', 500.0000,1,     0.000,     0.000,   1,   0,1.0676030, -22.74637,   1
   98,'GRIZZLYA    ', 500.0000,1,     0.000,     0.000,   1,   0,1.0710354, -17.89504,   1
   99,'BURNS1      ', 500.0000,1,     0.000,     0.000,   1,   0,0.9728332,   8.04290,   1
  100,'CORTINA     ', 200.0000,1,     0.000,     0.000,   3,   0,1.1309634, -34.97525,   1
  101,'COTWDPGE    ', 200.0000,1,     0.000,     0.000,   3,   0,1.1361257, -30.48937,   1
  102,'DIABLO      ', 500.0000,1,     0.000,     0.000,   2,   0,1.0529737, -46.12753,   1
  103,'DIABLO1     ',  25.0000,2,     0.000,     0.000,   2,   0,0.9800001, -42.32531,   1
  104,'GATES       ', 500.0000,1,     0.000,   -91.000,   2,   0,1.0470662, -47.68342,   1
  105,'GLENN       ', 200.0000,1,     0.000,     0.000,   3,   0,1.1409011, -34.19974,   1
  106,'LOGAN CR    ', 200.0000,1,     0.000,     0.000,   3,   0,1.1401536, -34.58474,   1
  107,'LOSBANOS    ', 500.0000,1,     0.000,     0.000,   2,   0,1.0492641, -49.52878,   1
  108,'MIDWAY      ', 500.0000,1,     0.000,  -327.000,   2,   0,1.0593395, -48.60661,   1
  109,'MIDWAY      ', 200.0000,1,     0.000,  -130.000,   2,   0,1.1670487, -51.44451,   1
  110,'MOSSLAND    ', 500.0000,1,     0.000,     0.000,   2,   0,1.0463853, -49.79357,   1
  111,'OLINDA      ', 500.0000,1,     0.000,     0.000,   3,   0,1.0372694, -31.06974,   1
  112,'ROUND MT    ',  20.0000,2,     0.000,     0.000,   3,   0,1.0200000, -15.08015,   1
  113,'ROUND MT    ', 200.0000,1,     0.000,  -128.000,   3,   0,1.1238493, -25.14123,   1
  114,'ROUND MT    ', 500.0000,1,     0.000,   -91.000,   3,   0,1.0345341, -27.93261,   1
  115,'TABLE MT    ', 500.0000,1,     0.000,   -91.000,   3,   0,1.0134106, -32.07098,   1
  116,'TEVATR      ',  20.0000,2,     0.000,     0.000,   3,   0,1.0500000, -35.68616,   1
  117,'TEVATR      ', 200.0000,1,     0.000,   -32.000,   3,   0,1.1274346, -39.63437,   1
  118,'TEVATR2     ',  20.0000,2,     0.000,     0.000,   3,   0,1.0000000, -30.78286,   1
  119,'TEVATR      ', 500.0000,1,     0.000,  1500.000,   3,   0,0.9981512, -38.99496,   1
  120,'OLINDA1     ', 500.0000,1,     0.000,     0.000,   3,   0,1.0502521, -24.09437,   1
  121,'OLINDA2     ', 500.0000,1,     0.000,     0.000,   3,   0,1.0114173, -38.03064,   1
  122,'OLINDA3     ', 500.0000,1,     0.000,     0.000,   3,   0,1.0278524, -30.79017,   1
  123,'OLINDA4     ', 500.0000,1,     0.000,     0.000,   3,   0,0.9809836, -46.60030,   1
  124,'ROUND1      ', 500.0000,1,     0.000,     0.000,   3,   0,1.0405351, -22.02823,   1
  125,'ROUND2      ', 500.0000,1,     0.000,     0.000,   3,   0,1.0107806, -36.14569,   1
  126,'ROUND3      ', 500.0000,1,     0.000,     0.000,   3,   0,1.0405351, -22.02823,   1
  127,'ROUND4      ', 500.0000,1,     0.000,     0.000,   3,   0,1.0107806, -36.14569,   1
  128,'TABLE1      ', 500.0000,1,     0.000,     0.000,   3,   0,1.0125657, -25.80769,   1
  129,'TABLE2      ', 500.0000,1,     0.000,     0.000,   3,   0,0.9988200, -45.34178,   1
  130,'TABLE3      ', 500.0000,1,     0.000,     0.000,   3,   0,1.0175421, -27.31835,   1
  131,'TABLE4      ', 500.0000,1,     0.000,     0.000,   3,   0,0.9987587, -41.42299,   1
  132,'TEVATR1     ', 500.0000,1,     0.000,     0.000,   2,   0,0.9799853, -36.94298,   1
  133,'TEVATR2     ', 500.0000,1,     0.000,     0.000,   2,   0,1.0704651, -51.70262,   1
  134,'TEVATR3     ', 500.0000,1,     0.000,     0.000,   2,   0,0.9714054, -35.06011,   1
  135,'GATES1      ', 500.0000,1,     0.000,     0.000,   2,   0,1.0680678, -49.99381,   1
  136,'DEVERS      ', 500.0000,1,     0.000,     0.000,   2,   0,1.0353869, -43.52286,   1
  137,'EAGLROCK    ', 230.0000,1,     0.000,     0.000,   2,   0,1.0100948, -52.76149,   1
  138,'ELDORADO    ',  20.0000,2,     0.000,     0.000,   2,   0,1.0200000, -25.97486,   1
  139,'ELDORADO    ', 500.0000,1,     0.000,  -319.000,   2,   0,1.0512159, -33.09640,   1
  140,'LITEHIPE    ',  20.0000,2,     0.000,     0.000,   2,   0,1.0200001, -49.62647,   1
  141,'LITEHIPE    ', 230.0000,1,     0.000,     0.000,   2,   0,1.0118579, -55.77592,   1
  142,'LUGO        ', 500.0000,1,     0.000,     0.000,   2,   0,1.0549835, -46.09091,   1
  143,'MESA CAL    ', 230.0000,1,     0.000,     0.000,   2,   0,1.0070505, -55.06108,   1
  144,'MIRALOMA    ',  20.0000,2,     0.000,     0.000,   2,   0,1.0500000, -45.44306,   1
  145,'MIRALOMA    ', 500.0000,1,     0.000,   400.000,   2,   0,1.0408680, -49.68051,   1
  146,'MIRALOMA    ', 230.0000,1,     0.000,     0.000,   2,   0,1.0382081, -50.12637,   1
  147,'MOHAVE      ', 500.0000,1,     0.000,  -196.000,   2,   0,1.0699919, -29.36200,   1
  148,'MOHAV1CC    ',  22.0000,2,     0.000,     0.000,   2,   0,1.0500000, -21.04146,   1
  149,'PARDEE      ',  20.0000,2,     0.000,     0.000,   2,   0,1.0100001, -39.60105,   1
  150,'PARDEE      ', 230.0000,1,     0.000,     0.000,   2,   0,1.0060028, -51.68344,   1
  151,'SERRANO     ', 500.0000,1,     0.000,     0.000,   2,   0,1.0412837, -50.07912,   1
  152,'VALLEY      ', 500.0000,1,     0.000,     0.000,   2,   0,1.0369413, -47.76236,   1
  153,'VINCENT     ', 500.0000,1,     0.000,     0.000,   2,   0,1.0611833, -48.94660,   1
  154,'VINCENT     ', 230.0000,1,     0.000,  -190.000,   2,   0,0.9948921, -51.63402,   1
  155,'CAMP WIL    ', 345.0000,1,     0.000,   -60.000,   1,   0,1.0428849,  -2.41760,   1
  156,'BENLOMND    ', 345.0000,1,     0.000,     0.000,   1,   0,1.0446388,  -3.39433,   1
  157,'BENLOMND    ', 230.0000,1,     0.000,     0.000,   1,   0,1.0462441,  -3.95995,   1
  158,'EMERY       ', 345.0000,1,     0.000,  -220.000,   1,   0,1.0370548,   4.88817,   1
  159,'EMERY       ',  20.0000,2,     0.000,     0.000,   1,   0,1.0500000,   9.60359,   1
  160,'MONA        ', 345.0000,1,     0.000,     0.000,   1,   0,1.0559640,  -2.00885,   1
  161,'NAUGHTON    ', 230.0000,1,     0.000,     0.000,   1,   0,1.0445255,   0.61286,   1
  162,'NAUGHT      ',  20.0000,2,     0.000,     0.000,   1,   0,1.0000000,   3.41258,   1
  163,'PINTO PS    ', 345.0000,1,     0.000,     0.000,   1,   0,1.0367886,  -2.44312,   1
  164,'PINTO       ', 345.0000,1,     0.000,   -18.000,   1,   0,1.0404400,  -1.40449,   1
  165,'SPAN FRK    ', 345.0000,1,     0.000,     0.000,   1,   0,1.0351393,  -1.09355,   1
  166,'SIGURD      ', 345.0000,1,     0.000,   -50.000,   1,   0,1.0518966,  -0.54708,   1
  167,'TERMINAL    ', 345.0000,1,     0.000,     0.000,   1,   0,1.0391091,  -3.42219,   1
  168,'MALIN3      ', 500.0000,1,     0.000,     0.000,   3,   0,1.0610514, -19.76979,   1
  169,'MALIN4      ', 500.0000,1,     0.000,     0.000,   3,   0,1.0255640, -31.66892,   1
  170,'MALIN5      ', 500.0000,1,     0.000,     0.000,   3,   0,1.0617883, -19.01465,   1
  171,'MALIN6      ', 500.0000,1,     0.000,     0.000,   3,   0,1.0270157, -31.69816,   1
  172,'MALIN7      ', 500.0000,1,     0.000,     0.000,   3,   0,1.0569575, -17.44045,   1
  173,'MALIN8      ', 500.0000,1,     0.000,     0.000,   3,   0,1.0319382, -37.15113,   1
  174,'MIDWAY1     ', 500.0000,1,     0.000,     0.000,   2,   0,1.0465112, -48.24000,   1
  175,'MIDWAY2     ', 500.0000,1,     0.000,     0.000,   2,   0,1.0545770, -49.30942,   1
  176,'MIDWAY3     ', 500.0000,1,     0.000,     0.000,   2,   0,1.0462446, -48.23486,   1
  177,'MIDWAY4     ', 500.0000,1,     0.000,     0.000,   2,   0,1.0547031, -49.31084,   1
  178,'MIDWAY5     ', 500.0000,1,     0.000,     0.000,   2,   0,1.0459762, -48.22255,   1
  179,'MIDWAY6     ', 500.0000,1,     0.000,     0.000,   2,   0,1.0570511, -49.28706,   1
  180,'BURNS2      ', 500.0000,1,     0.000,  -220.000,   1,   0,0.9843625,  -6.68690,   1
0 / END OF BUS DATA, BEGIN LOAD DATA
    2,'BL',1,   1,   0,  1750.000,   -56.000,     0.000,     0.000,     0.000,    -0.000,   1
    4,'BL',1,   1,   0,   100.000,     0.000,     0.000,     0.000,     0.000,    -0.000,   1
    5,'BL',1,   1,   0,  2350.000,  -127.000,     0.000,     0.000,     0.000,    -0.000,   1
    6,'BL',1,   1,   0,   100.000,     0.000,     0.000,     0.000,     0.000,    -0.000,   1
    8,'BL',1,   1,   0,   239.000,   -56.000,     0.000,     0.000,     0.000,    -0.000,   1
    9,'BL',1,   1,   0,   100.000,     0.000,     0.000,     0.000,     0.000,    -0.000,   1
   10,'BL',1,   1,   0,   139.700,    23.800,     0.000,     0.000,     0.000,    -0.000,   1
   11,'BL',1,   1,   0,   100.000,     0.000,     0.000,     0.000,     0.000,    -0.000,   1
   12,'BL',1,   2,   0,    90.000,    70.000,     0.000,     0.000,     0.000,    -0.000,   1
   13,'BL',1,   2,   0,   100.000,     0.000,     0.000,     0.000,     0.000,    -0.000,   1
   15,'BL',1,   2,   0,   100.000,     0.000,     0.000,     0.000,     0.000,    -0.000,   1
   16,'BL',1,   2,   0,   793.400,   207.000,     0.000,     0.000,     0.000,    -0.000,   1
   17,'BL',1,   1,   0,   840.000,     5.000,     0.000,     0.000,     0.000,    -0.000,   1
   18,'BL',1,   1,   0,   100.000,     0.000,     0.000,     0.000,     0.000,    -0.000,   1
   19,'BL',1,   2,   0,   617.000,   -69.000,     0.000,     0.000,     0.000,    -0.000,   1
   30,'BL',1,   1,   0,   100.000,     0.000,     0.000,     0.000,     0.000,    -0.000,   1
   31,'BL',1,   1,   0,  4400.000,  1000.000,     0.000,     0.000,     0.000,    -0.000,   1
   34,'BL',1,   1,   0,  3600.000,   700.000,     0.000,     0.000,     0.000,    -0.000,   1
   35,'BL',1,   1,   0,   100.000,     0.000,     0.000,     0.000,     0.000,    -0.000,   1
   36,'BL',1,   1,   0,   100.000,     0.000,     0.000,     0.000,     0.000,    -0.000,   1
   37,'BL',1,   2,   0, -1862.000,   971.000,     0.000,     0.000,     0.000,    -0.000,   1
   40,'BL',1,   2,   0,   100.000,     0.000,     0.000,     0.000,     0.000,    -0.000,   1
   41,'BL',1,   2,   0,   135.000,    27.000,     0.000,     0.000,     0.000,    -0.000,   1
   43,'BL',1,   2,   0,   100.000,     0.000,     0.000,     0.000,     0.000,    -0.000,   1
   44,'BL',1,   1,   0,  2053.000,   907.100,     0.000,     0.000,     0.000,    -0.000,   1
   45,'BL',1,   1,   0,   100.000,     0.000,     0.000,     0.000,     0.000,    -0.000,   1
   46,'BL',1,   2,   0,   -72.800,   -17.000,     0.000,     0.000,     0.000,    -0.000,   1
   47,'BL',1,   2,   0,   100.000,     0.000,     0.000,     0.000,     0.000,    -0.000,   1
   48,'BL',1,   2,   0,   121.000,    25.000,     0.000,     0.000,     0.000,    -0.000,   1
   50,'BL',1,   2,   0,   320.000,    65.000,     0.000,     0.000,     0.000,    -0.000,   1
   51,'BL',1,   2,   0,   237.200,   -63.200,     0.000,     0.000,     0.000,    -0.000,   1
   54,'BL',1,   2,   0,   138.000,    28.000,     0.000,     0.000,     0.000,    -0.000,   1
   55,'BL',1,   2,   0,   807.800,   132.100,     0.000,     0.000,     0.000,    -0.000,   1
   57,'BL',1,   2,   0,   117.000,    24.000,     0.000,     0.000,     0.000,    -0.000,   1
   58,'BL',1,   2,   0,   121.000,    25.000,     0.000,     0.000,     0.000,    -0.000,   1
   59,'BL',1,   2,   0,   887.700,    -6.200,     0.000,     0.000,     0.000,    -0.000,   1
   60,'BL',1,   2,   0, -2771.000,  1654.000,     0.000,     0.000,     0.000,    -0.000,   1
   61,'BL',1,   2,   0,   401.000,    80.600,     0.000,     0.000,     0.000,    -0.000,   1
   62,'BL',1,   2,   0,   205.200,    17.600,     0.000,     0.000,     0.000,    -0.000,   1
   63,'BL',1,   2,   0,  -129.000,    32.200,     0.000,     0.000,     0.000,    -0.000,   1
   65,'BL',1,   1,   0,   100.000,     0.000,     0.000,     0.000,     0.000,    -0.000,   1
   66,'BL',1,   1,   0,  1700.000,   300.000,     0.000,     0.000,     0.000,    -0.000,   1
   67,'BL',1,   1,   0,   160.000,    31.250,     0.000,     0.000,     0.000,    -0.000,   1
   68,'BL',1,   1,   0,   -67.500,   160.000,     0.000,     0.000,     0.000,    -0.000,   1
   69,'BL',1,   1,   0,   -44.200,    22.000,     0.000,     0.000,     0.000,    -0.000,   1
   70,'BL',1,   1,   0,   100.000,     0.000,     0.000,     0.000,     0.000,    -0.000,   1
   71,'BL',1,   1,   0,  3137.000,  1681.000,     0.000,     0.000,     0.000,    -0.000,   1
   73,'BL',1,   1,   0, -1525.000,   -50.000,     0.000,     0.000,     0.000,    -0.000,   1
   75,'BL',1,   1,   0,  2584.000,   394.000,     0.000,     0.000,     0.000,    -0.000,   1
   76,'BL',1,   1,   0,  3200.000,  1100.000,     0.000,     0.000,     0.000,    -0.000,   1
   77,'BL',1,   1,   0,   100.000,     0.000,     0.000,     0.000,     0.000,    -0.000,   1
   78,'BL',1,   1,   0,  3500.000,   500.000,     0.000,     0.000,     0.000,    -0.000,   1
   79,'BL',1,   1,   0,   100.000,     0.000,     0.000,     0.000,     0.000,    -0.000,   1
   80,'BL',1,   1,   0,  5000.000,   400.000,     0.000,     0.000,     0.000,    -0.000,   1
   82,'BL',1,   1,   0,   -66.600,   -97.000,     0.000,     0.000,     0.000,    -0.000,   1
   83,'BL',1,   1,   0,  -339.000,  -119.000,     0.000,     0.000,     0.000,    -0.000,   1
   85,'BL',1,   1,   0,   610.000,  -414.000,     0.000,     0.000,     0.000,    -0.000,   1
  100,'BL',1,   3,   0,   -43.300,    20.000,     0.000,     0.000,     0.000,    -0.000,   1
  101,'BL',1,   3,   0,   210.400,   -77.000,     0.000,     0.000,     0.000,    -0.000,   1
  102,'BL',1,   2,   0,    50.000,    25.000,     0.000,     0.000,     0.000,    -0.000,   1
  103,'BL',1,   2,   0,   100.000,     0.000,     0.000,     0.000,     0.000,    -0.000,   1
  104,'BL',1,   2,   0,   305.000,    -7.600,     0.000,     0.000,     0.000,    -0.000,   1
  105,'BL',1,   3,   0,    27.500,    -0.100,     0.000,     0.000,     0.000,    -0.000,   1
  106,'BL',1,   3,   0,     8.010,     0.000,     0.000,     0.000,     0.000,    -0.000,   1
  107,'BL',1,   2,   0,   265.000,    14.000,     0.000,     0.000,     0.000,    -0.000,   1
  108,'BL',1,   2,   0,    55.600,  -329.000,     0.000,     0.000,     0.000,    -0.000,   1
  109,'BL',1,   2,   0,   777.600,    32.600,     0.000,     0.000,     0.000,    -0.000,   1
  110,'BL',1,   2,   0,    40.000,    21.500,     0.000,     0.000,     0.000,    -0.000,   1
  111,'BL',1,   3,   0,  -189.000,    61.500,     0.000,     0.000,     0.000,    -0.000,   1
  112,'BL',1,   3,   0,   100.000,     0.000,     0.000,     0.000,     0.000,    -0.000,   1
  113,'BL',1,   3,   0,   148.000,     0.000,     0.000,     0.000,     0.000,    -0.000,   1
  115,'BL',1,   3,   0,    -0.700,   118.500,     0.000,     0.000,     0.000,    -0.000,   1
  116,'BL',1,   3,   0,   100.000,     0.000,     0.000,     0.000,     0.000,    -0.000,   1
  117,'BL',1,   3,   0,   884.000,    54.800,     0.000,     0.000,     0.000,    -0.000,   1
  118,'BL',1,   3,   0,   100.000,     0.000,     0.000,     0.000,     0.000,    -0.000,   1
  119,'BL',1,   3,   0,  5661.000,  3491.000,     0.000,     0.000,     0.000,    -0.000,   1
  136,'BL',1,   2,   0,   856.000,    19.600,     0.000,     0.000,     0.000,    -0.000,   1
  137,'BL',1,   2,   0,   175.000,    18.000,     0.000,     0.000,     0.000,    -0.000,   1
  138,'BL',1,   2,   0,   100.000,     0.000,     0.000,     0.000,     0.000,    -0.000,   1
  139,'BL',1,   2,   0,   902.300,   -11.400,     0.000,     0.000,     0.000,    -0.000,   1
  140,'BL',1,   2,   0,   100.000,     0.000,     0.000,     0.000,     0.000,    -0.000,   1
  141,'BL',1,   2,   0,  3191.000,   630.000,     0.000,     0.000,     0.000,    -0.000,   1
  142,'BL',1,   2,   0,   204.200,   -28.200,     0.000,     0.000,     0.000,    -0.000,   1
  143,'BL',1,   2,   0,   377.400,    64.500,     0.000,     0.000,     0.000,    -0.000,   1
  144,'BL',1,   2,   0,   100.000,     0.000,     0.000,     0.000,     0.000,    -0.000,   1
  145,'BL',1,   2,   0,  3098.000,  1189.000,     0.000,     0.000,     0.000,    -0.000,   1
  148,'BL',1,   2,   0,   100.000,     0.000,     0.000,     0.000,     0.000,    -0.000,   1
  149,'BL',1,   2,   0,   100.000,     0.000,     0.000,     0.000,     0.000,    -0.000,   1
  150,'BL',1,   2,   0,  3118.000,    78.000,     0.000,     0.000,     0.000,    -0.000,   1
  151,'BL',1,   2,   0,  1230.000,    72.800,     0.000,     0.000,     0.000,    -0.000,   1
  152,'BL',1,   2,   0,   406.000,    41.000,     0.000,     0.000,     0.000,    -0.000,   1
  154,'BL',1,   2,   0,  1066.000,   -10.800,     0.000,     0.000,     0.000,    -0.000,   1
  155,'BL',1,   1,   0,   457.700,    81.700,     0.000,     0.000,     0.000,    -0.000,   1
  156,'BL',1,   1,   0,    33.900,    11.900,     0.000,     0.000,     0.000,    -0.000,   1
  157,'BL',1,   1,   0,   148.000,    -7.900,     0.000,     0.000,     0.000,    -0.000,   1
  158,'BL',1,   1,   0,   116.100,    38.400,     0.000,     0.000,     0.000,    -0.000,   1
  159,'BL',1,   1,   0,   100.000,     0.000,     0.000,     0.000,     0.000,    -0.000,   1
  160,'BL',1,   1,   0,   -62.000,    12.800,     0.000,     0.000,     0.000,    -0.000,   1
  161,'BL',1,   1,   0,   255.000,   100.000,     0.000,     0.000,     0.000,    -0.000,   1
  162,'BL',1,   1,   0,   100.000,     0.000,     0.000,     0.000,     0.000,    -0.000,   1
  164,'BL',1,   1,   0,    31.600,    11.500,     0.000,     0.000,     0.000,    -0.000,   1
  165,'BL',1,   1,   0,   141.200,    71.400,     0.000,     0.000,     0.000,    -0.000,   1
  166,'BL',1,   1,   0,   379.000,   -43.000,     0.000,     0.000,     0.000,    -0.000,   1
  167,'BL',1,   1,   0,   185.000,    78.500,     0.000,     0.000,     0.000,    -0.000,   1
0 / END OF LOAD DATA, BEGIN GENERATOR DATA
    4,'1 ',   800.000,   123.046,   300.000,  -300.000,1.04000,    0,  1600.000,   0.00000,   0.25000,   0.00000,   0.00000,1.00000,1,  100.0,  9999.000,     0.000,   1,1.0000,   0,1.0000,   0,1.0000,   0,1.0000
    6,'1 ',  1048.000,  -132.903,   400.000,  -400.000,0.95000,    0,  2100.000,   0.00000,   0.25000,   0.00000,   0.00000,1.00000,1,  100.0,  9999.000,     0.000,   1,1.0000,   0,1.0000,   0,1.0000,   0,1.0000
    9,'1 ',  2160.000,   -30.483,   700.000,  -500.000,1.00000,    0,  4300.000,   0.00000,   0.25000,   0.00000,   0.00000,1.00000,1,  100.0,  9999.000,     0.000,   1,1.0000,   0,1.0000,   0,1.0000,   0,1.0000
   11,'1 ',  2050.000,   464.823,   900.000,  -900.000,1.00000,    0,  4100.000,   0.00000,   0.25000,   0.00000,   0.00000,1.00000,1,  100.0,  9999.000,     0.000,   1,1.0000,   0,1.0000,   0,1.0000,   0,1.0000
   13,'1 ',  1690.000,   195.561,   700.000,  -280.000,1.00000,    0,  3400.000,   0.00000,   0.25000,   0.00000,   0.00000,1.00000,1,  100.0,  9999.000,     0.000,   1,1.0000,   0,1.0000,   0,1.0000,   0,1.0000
   15,'1 ',  2640.000,   378.087,  1300.000,  -900.000,0.96000,    0,  5300.000,   0.00000,   0.25000,   0.00000,   0.00000,1.00000,1,  100.0,  9999.000,     0.000,   1,1.0000,   0,1.0000,   0,1.0000,   0,1.0000
   18,'1 ',   962.000,   148.780,   300.000,  -300.000,1.00000,    0,  2000.000,   0.00000,   0.25000,   0.00000,   0.00000,1.00000,1,  100.0,  9999.000,     0.000,   1,1.0000,   0,1.0000,   0,1.0000,   0,1.0000
   30,'1 ',  4450.000,  1011.056,  4000.000, -4000.000,1.00000,    0,  8900.000,   0.00000,   0.25000,   0.00000,   0.00000,1.00000,1,  100.0,  9999.000,     0.000,   1,1.0000,   0,1.0000,   0,1.0000,   0,1.0000
   35,'1 ',  4480.000,  1150.156,  5320.000, -3500.000,1.02000,    0,  9000.000,   0.00000,   0.25000,   0.00000,   0.00000,1.00000,1,  100.0,  9999.000,     0.000,   1,1.0000,   0,1.0000,   0,1.0000,   0,1.0000
   36,'1 ',  1640.000,   285.661,   600.000,  -525.000,1.00900,    0,  3300.000,   0.00000,   0.25000,   0.00000,   0.00000,1.00000,1,  100.0,  9999.000,     0.000,   1,1.0000,   0,1.0000,   0,1.0000,   0,1.0000
   40,'1 ',   200.000,   -52.158,   268.000,  -134.000,1.02000,    0,   400.000,   0.00000,   0.25000,   0.00000,   0.00000,1.00000,1,  100.0,  9999.000,     0.000,   1,1.0000,   0,1.0000,   0,1.0000,   0,1.0000
   43,'1 ',   325.000,    68.267,   300.000,  -220.000,1.00000,    0,   650.000,   0.00000,   0.25000,   0.00000,   0.00000,1.00000,1,  100.0,  9999.000,     0.000,   1,1.0000,   0,1.0000,   0,1.0000,   0,1.0000
   45,'1 ',  1780.000,   534.587,   850.000,  -440.000,1.05000,    0,  3600.000,   0.00000,   0.25000,   0.00000,   0.00000,1.00000,1,  100.0,  9999.000,     0.000,   1,1.0000,   0,1.0000,   0,1.0000,   0,1.0000
   47,'1 ',   110.000,    29.078,   100.000,  -100.000,1.02000,    0,   220.000,   0.00000,   0.25000,   0.00000,   0.00000,1.00000,1,  100.0,  9999.000,     0.000,   1,1.0000,   0,1.0000,   0,1.0000,   0,1.0000
   65,'1 ',  2910.000,   953.293,  1500.000, -1000.000,1.00000,    0,  5800.000,   0.00000,   0.25000,   0.00000,   0.00000,1.00000,1,  100.0,  9999.000,     0.000,   1,1.0000,   0,1.0000,   0,1.0000,   0,1.0000
   70,'1 ',  1301.000,   431.526,   692.000,  -711.000,1.05500,    0,  2600.000,   0.00000,   0.25000,   0.00000,   0.00000,1.00000,1,  100.0,  9999.000,     0.000,   1,1.0000,   0,1.0000,   0,1.0000,   0,1.0000
   77,'1 ',  5174.989,   855.300,  2649.000, -1850.000,1.00000,    0, 10400.000,   0.00000,   0.25000,   0.00000,   0.00000,1.00000,1,  100.0,  9999.000,     0.000,   1,1.0000,   0,1.0000,   0,1.0000,   0,1.0000
   79,'1 ',  9950.000,  1853.928,  5780.000, -2000.000,1.00000,    0, 20000.000,   0.00000,   0.25000,   0.00000,   0.00000,1.00000,1,  100.0,  9999.000,     0.000,   1,1.0000,   0,1.0000,   0,1.0000,   0,1.0000
  103,'1 ',   765.000,  -206.255,   330.000,  -310.000,0.98000,    0,  1500.000,   0.00000,   0.25000,   0.00000,   0.00000,1.00000,1,  100.0,  9999.000,     0.000,   1,1.0000,   0,1.0000,   0,1.0000,   0,1.0000
  112,'1 ',  1057.000,    25.688,   400.000,  -400.000,1.02000,    0,  2100.000,   0.00000,   0.25000,   0.00000,   0.00000,1.00000,1,  100.0,  9999.000,     0.000,   1,1.0000,   0,1.0000,   0,1.0000,   0,1.0000
  116,'1 ',   594.000,   192.365,   300.000,  -300.000,1.05000,    0,  1200.000,   0.00000,   0.25000,   0.00000,   0.00000,1.00000,1,  100.0,  9999.000,     0.000,   1,1.0000,   0,1.0000,   0,1.0000,   0,1.0000
  118,'1 ',  3467.000,  1654.450,  2500.000, -1000.000,1.00000,    0,  6900.000,   0.00000,   0.25000,   0.00000,   0.00000,1.00000,1,  100.0,  9999.000,     0.000,   1,1.0000,   0,1.0000,   0,1.0000,   0,1.0000
  138,'1 ',   982.700,  -128.761,   300.000,  -300.000,1.02000,    0,  2000.000,   0.00000,   0.25000,   0.00000,   0.00000,1.00000,1,  100.0,  9999.000,     0.000,   1,1.0000,   0,1.0000,   0,1.0000,   0,1.0000
  140,'1 ',  3195.000,  1032.505,  2000.000,  -900.000,1.02000,    0,  6400.000,   0.00000,   0.25000,   0.00000,   0.00000,1.00000,1,  100.0,  9999.000,     0.000,   1,1.0000,   0,1.0000,   0,1.0000,   0,1.0000
  144,'1 ',  1690.000,   593.817,   900.000,  -400.000,1.05000,    0,  3400.000,   0.00000,   0.25000,   0.00000,   0.00000,1.00000,1,  100.0,  9999.000,     0.000,   1,1.0000,   0,1.0000,   0,1.0000,   0,1.0000
  148,'1 ',  1680.000,   446.624,   700.000,  -300.000,1.05000,    0,  3400.000,   0.00000,   0.25000,   0.00000,   0.00000,1.00000,1,  100.0,  9999.000,     0.000,   1,1.0000,   0,1.0000,   0,1.0000,   0,1.0000
  149,'1 ',  2200.000,   393.721,   600.000,  -600.000,1.01000,    0,  4400.000,   0.00000,   0.25000,   0.00000,   0.00000,1.00000,1,  100.0,  9999.000,     0.000,   1,1.0000,   0,1.0000,   0,1.0000,   0,1.0000
  159,'1 ',  1665.000,   -31.365,  9999.000, -9999.000,1.05000,    0,  3300.000,   0.00000,   0.25000,   0.00000,   0.00000,1.00000,1,  100.0,  9999.000,     0.000,   1,1.0000,   0,1.0000,   0,1.0000,   0,1.0000
  162,'1 ',   445.000,    91.732,  9999.000, -9999.000,1.00000,    0,   900.000,   0.00000,   0.25000,   0.00000,   0.00000,1.00000,1,  100.0,  9999.000,     0.000,   1,1.0000,   0,1.0000,   0,1.0000,   0,1.0000
0 / END OF GENERATOR DATA, BEGIN BRANCH DATA
    3,     8,'1 ', 0.00179, 0.01988,2.57600,   0.00,   0.00,   0.00,  0.00000,  0.00000,  0.00000,  0.00000,1,   0.0,   1,1.0000,   0,1.0000,   0,1.0000,   0,1.0000
   17,     5,'1 ', 0.00977, 0.11000,2.00000,   0.00,   0.00,   0.00,  0.00000,  0.00000,  0.00000,  0.00000,1,   0.0,   1,1.0000,   0,1.0000,   0,1.0000,   0,1.0000
    5,   160,'1 ', 0.00811, 0.13690,2.43480,   0.00,   0.00,   0.00,  0.00000,  0.00000,  0.00000,  0.00000,1,   0.0,   1,1.0000,   0,1.0000,   0,1.0000,   0,1.0000
    7,    28,'1 ', 0.00000,-0.00408,0.00000,   0.00,   0.00,   0.00,  0.00000,  0.00000,  0.00000,  0.00000,1,   0.0,   1,1.0000,   0,1.0000,   0,1.0000,   0,1.0000
    8,    17,'1 ', 0.00050, 0.00530,0.08820,   0.00,   0.00,   0.00,  0.00000,  0.00000,  0.00000,  0.00000,1,   0.0,   1,1.0000,   0,1.0000,   0,1.0000,   0,1.0000
  163,     8,'1 ', 0.00480, 0.04360,0.70780,   0.00,   0.00,   0.00,  0.00000,  0.00000,  0.00000,  0.00000,1,   0.0,   1,1.0000,   0,1.0000,   0,1.0000,   0,1.0000
   12,    20,'1 ', 0.00000,-0.00634,0.00000,   0.00,   0.00,   0.00,  0.00000,  0.00000,  0.00000,  0.00000,1,   0.0,   1,1.0000,   0,1.0000,   0,1.0000,   0,1.0000
   12,    22,'1 ', 0.00000,-0.01188,0.00000,   0.00,   0.00,   0.00,  0.00000,  0.00000,  0.00000,  0.00000,1,   0.0,   1,1.0000,   0,1.0000,   0,1.0000,   0,1.0000
   12,   139,'1 ', 0.00280, 0.02110,1.01940,   0.00,   0.00,1630.00,  0.00000,  0.00000,  0.00000,  0.00000,1,   0.0,   1,1.0000,   0,1.0000,   0,1.0000,   0,1.0000
   21,    14,'1 ', 0.00000,-0.00634,0.00000,   0.00,   0.00,   0.00,  0.00000,  0.00000,  0.00000,  0.00000,1,   0.0,   1,1.0000,   0,1.0000,   0,1.0000,   0,1.0000
   14,    24,'1 ', 0.00000,-0.00826,0.00000,   0.00,   0.00,   0.00,  0.00000,  0.00000,  0.00000,  0.00000,1,   0.0,   1,1.0000,   0,1.0000,   0,1.0000,   0,1.0000
   14,    26,'1 ', 0.00000,-0.01795,0.00000,   0.00,   0.00,   0.00,  0.00000,  0.00000,  0.00000,  0.00000,1,   0.0,   1,1.0000,   0,1.0000,   0,1.0000,   0,1.0000
   29,    14,'1 ', 0.00000,-0.00612,0.00000,   0.00,   0.00,   0.00,  0.00000,  0.00000,  0.00000,  0.00000,1,   0.0,   1,1.0000,   0,1.0000,   0,1.0000,   0,1.0000
   16,    19,'1 ', 0.00040, 0.00960,0.90380,   0.00,   0.00,   0.00,  0.00000,  0.00000,  0.00000,  0.00000,1,   0.0,   1,1.0000,   0,1.0000,   0,1.0000,   0,1.0000
   16,    19,'2 ', 0.00040, 0.00960,0.90380,   0.00,   0.00,   0.00,  0.00000,  0.00000,  0.00000,  0.00000,1,   0.0,   1,1.0000,   0,1.0000,   0,1.0000,   0,1.0000
   16,   136,'1 ', 0.00259, 0.02967,2.15300,   0.00,   0.00,1800.00,  0.00000,  0.00000,  0.00000,  0.00000,1,   0.0,   1,1.0000,   0,1.0000,   0,1.0000,   0,1.0000
   16,   136,'2 ', 0.00259, 0.02967,2.15300,   0.00,   0.00,1800.00,  0.00000,  0.00000,  0.00000,  0.00000,1,   0.0,   1,1.0000,   0,1.0000,   0,1.0000,   0,1.0000
   23,    19,'1 ', 0.00000,-0.01188,0.00000,   0.00,   0.00,   0.00,  0.00000,  0.00000,  0.00000,  0.00000,1,   0.0,   1,1.0000,   0,1.0000,   0,1.0000,   0,1.0000
   25,    19,'1 ', 0.00000,-0.00826,0.00000,   0.00,   0.00,   0.00,  0.00000,  0.00000,  0.00000,  0.00000,1,   0.0,   1,1.0000,   0,1.0000,   0,1.0000,   0,1.0000
   20,    21,'1 ', 0.00077, 0.01804,1.39842,   0.00,   0.00,   0.00,  0.00000,  0.00000,  0.00000,  0.00000,1,   0.0,   1,1.0000,   0,1.0000,   0,1.0000,   0,1.0000
   22,    23,'1 ', 0.00241, 0.05865,4.86560,   0.00,   0.00,   0.00,  0.00000,  0.00000,  0.00000,  0.00000,1,   0.0,   1,1.0000,   0,1.0000,   0,1.0000,   0,1.0000
   24,    25,'1 ', 0.00179, 0.04244,3.39220,   0.00,   0.00,   0.00,  0.00000,  0.00000,  0.00000,  0.00000,1,   0.0,   1,1.0000,   0,1.0000,   0,1.0000,   0,1.0000
   26,    27,'1 ', 0.00207, 0.04959,3.95160,   0.00,   0.00,   0.00,  0.00000,  0.00000,  0.00000,  0.00000,1,   0.0,   1,1.0000,   0,1.0000,   0,1.0000,   0,1.0000
   27,   139,'1 ', 0.00000,-0.01795,0.00000,   0.00,   0.00,   0.00,  0.00000,  0.00000,  0.00000,  0.00000,1,   0.0,   1,1.0000,   0,1.0000,   0,1.0000,   0,1.0000
   28,    29,'1 ', 0.00177, 0.04189,3.34460,   0.00,   0.00,   0.00,  0.00000,  0.00000,  0.00000,  0.00000,1,   0.0,   1,1.0000,   0,1.0000,   0,1.0000,   0,1.0000
   31,    32,'1 ', 0.00350, 0.07000,4.60600,   0.00,   0.00,   0.00,  0.00000,  0.00000,  0.00000,  0.00000,1,   0.0,   1,1.0000,   0,1.0000,   0,1.0000,   0,1.0000
   31,    80,'1 ', 0.00083, 0.02390,3.30000,   0.00,   0.00,   0.00,  0.00000,  0.00000,  0.00000,  0.00000,1,   0.0,   1,1.0000,   0,1.0000,   0,1.0000,   0,1.0000
   33,    34,'1 ', 0.00200, 0.02000,0.80000,   0.00,   0.00,   0.00,  0.00000,  0.00000,  0.00000,  0.00000,1,   0.0,   1,1.0000,   0,1.0000,   0,1.0000,   0,1.0000
   37,    38,'1 ', 0.00074, 0.01861,1.40264,   0.00,   0.00,   0.00,  0.00000,  0.00000,  0.00000,  0.00000,1,   0.0,   1,1.0000,   0,1.0000,   0,1.0000,   0,1.0000
   37,    56,'1 ', 0.00082, 0.01668,1.18802,   0.00,   0.00,   0.00,  0.00000,  0.00000,  0.00000,  0.00000,1,   0.0,   1,1.0000,   0,1.0000,   0,1.0000,   0,1.0000
   37,    64,'1 ', 0.00000, 0.00159,0.12002,   0.00,   0.00,   0.00,  0.00000,  0.00000,  0.00000,  0.00000,1,   0.0,   1,1.0000,   0,1.0000,   0,1.0000,   0,1.0000
   37,    64,'2 ', 0.00000, 0.00159,0.12002,   0.00,   0.00,   0.00,  0.00000,  0.00000,  0.00000,  0.00000,1,   0.0,   1,1.0000,   0,1.0000,   0,1.0000,   0,1.0000
   39,    46,'1 ', 0.00221, 0.03346,0.07338,   0.00,   0.00,   0.00,  0.00000,  0.00000,  0.00000,  0.00000,1,   0.0,   1,1.0000,   0,1.0000,   0,1.0000,   0,1.0000
   39,    48,'1 ', 0.00290, 0.03800,0.08240,   0.00,   0.00,   0.00,  0.00000,  0.00000,  0.00000,  0.00000,1,   0.0,   1,1.0000,   0,1.0000,   0,1.0000,   0,1.0000
   39,    59,'1 ', 0.00309, 0.04677,0.10080,   0.00,   0.00,   0.00,  0.00000,  0.00000,  0.00000,  0.00000,1,   0.0,   1,1.0000,   0,1.0000,   0,1.0000,   0,1.0000
   39,    60,'1 ', 0.00226, 0.03422,0.07506,   0.00,   0.00,   0.00,  0.00000,  0.00000,  0.00000,  0.00000,1,   0.0,   1,1.0000,   0,1.0000,   0,1.0000,   0,1.0000
   55,    41,'1 ', 0.00047, 0.00723,0.01624,   0.00,   0.00,   0.00,  0.00000,  0.00000,  0.00000,  0.00000,1,   0.0,   1,1.0000,   0,1.0000,   0,1.0000,   0,1.0000
   41,    58,'1 ', 0.00035, 0.00536,0.01204,   0.00,   0.00,   0.00,  0.00000,  0.00000,  0.00000,  0.00000,1,   0.0,   1,1.0000,   0,1.0000,   0,1.0000,   0,1.0000
   50,    42,'1 ', 0.00220, 0.03422,0.07716,   0.00,   0.00,   0.00,  0.00000,  0.00000,  0.00000,  0.00000,1,   0.0,   1,1.0000,   0,1.0000,   0,1.0000,   0,1.0000
   50,    42,'2 ', 0.00238, 0.03669,0.08284,   0.00,   0.00,   0.00,  0.00000,  0.00000,  0.00000,  0.00000,1,   0.0,   1,1.0000,   0,1.0000,   0,1.0000,   0,1.0000
   57,    42,'1 ', 0.00201, 0.03074,0.06886,   0.00,   0.00,   0.00,  0.00000,  0.00000,  0.00000,  0.00000,1,   0.0,   1,1.0000,   0,1.0000,   0,1.0000,   0,1.0000
   42,    58,'1 ', 0.00281, 0.04296,0.09648,   0.00,   0.00,   0.00,  0.00000,  0.00000,  0.00000,  0.00000,1,   0.0,   1,1.0000,   0,1.0000,   0,1.0000,   0,1.0000
   44,   160,'1 ', 0.00180, 0.02450,0.43920,   0.00,   0.00,   0.00,  0.00000,  0.00000,  0.00000,  0.00000,1,   0.0,   1,1.0000,   0,1.0000,   0,1.0000,   0,1.0000
   44,   160,'2 ', 0.00180, 0.02450,0.43920,   0.00,   0.00,   0.00,  0.00000,  0.00000,  0.00000,  0.00000,1,   0.0,   1,1.0000,   0,1.0000,   0,1.0000,   0,1.0000
   48,    46,'1 ', 0.00029, 0.00434,0.00950,   0.00,   0.00,   0.00,  0.00000,  0.00000,  0.00000,  0.00000,1,   0.0,   1,1.0000,   0,1.0000,   0,1.0000,   0,1.0000
   48,    55,'1 ', 0.00229, 0.01583,0.03060,   0.00,   0.00,   0.00,  0.00000,  0.00000,  0.00000,  0.00000,1,   0.0,   1,1.0000,   0,1.0000,   0,1.0000,   0,1.0000
   48,    55,'2 ', 0.00229, 0.01583,0.03060,   0.00,   0.00,   0.00,  0.00000,  0.00000,  0.00000,  0.00000,1,   0.0,   1,1.0000,   0,1.0000,   0,1.0000,   0,1.0000
   48,    59,'1 ', 0.00141, 0.00967,0.01940,   0.00,   0.00,   0.00,  0.00000,  0.00000,  0.00000,  0.00000,1,   0.0,   1,1.0000,   0,1.0000,   0,1.0000,   0,1.0000
   48,    59,'2 ', 0.00141, 0.00967,0.01940,   0.00,   0.00,   0.00,  0.00000,  0.00000,  0.00000,  0.00000,1,   0.0,   1,1.0000,   0,1.0000,   0,1.0000,   0,1.0000
   48,    59,'3 ', 0.00161, 0.00971,0.01928,   0.00,   0.00,   0.00,  0.00000,  0.00000,  0.00000,  0.00000,1,   0.0,   1,1.0000,   0,1.0000,   0,1.0000,   0,1.0000
   48,    59,'4 ', 0.00161, 0.00971,0.01928,   0.00,   0.00,   0.00,  0.00000,  0.00000,  0.00000,  0.00000,1,   0.0,   1,1.0000,   0,1.0000,   0,1.0000,   0,1.0000
   48,    60,'1 ', 0.00027, 0.00393,0.00918,   0.00,   0.00,   0.00,  0.00000,  0.00000,  0.00000,  0.00000,1,   0.0,   1,1.0000,   0,1.0000,   0,1.0000,   0,1.0000
   48,    60,'2 ', 0.00027, 0.00393,0.00918,   0.00,   0.00,   0.00,  0.00000,  0.00000,  0.00000,  0.00000,1,   0.0,   1,1.0000,   0,1.0000,   0,1.0000,   0,1.0000
   48,    60,'3 ', 0.00027, 0.00393,0.00918,   0.00,   0.00,   0.00,  0.00000,  0.00000,  0.00000,  0.00000,1,   0.0,   1,1.0000,   0,1.0000,   0,1.0000,   0,1.0000
   48,    62,'1 ', 0.00138, 0.01116,0.02470,   0.00,   0.00,   0.00,  0.00000,  0.00000,  0.00000,  0.00000,1,   0.0,   1,1.0000,   0,1.0000,   0,1.0000,   0,1.0000
   48,    62,'2 ', 0.00138, 0.01116,0.02470,   0.00,   0.00,   0.00,  0.00000,  0.00000,  0.00000,  0.00000,1,   0.0,   1,1.0000,   0,1.0000,   0,1.0000,   0,1.0000
   64,    49,'1 ', 0.00083, 0.01884,1.66668,   0.00,   0.00,   0.00,  0.00000,  0.00000,  0.00000,  0.00000,1,   0.0,   1,1.0000,   0,1.0000,   0,1.0000,   0,1.0000
   50,    57,'1 ', 0.00037, 0.00366,0.00830,   0.00,   0.00,   0.00,  0.00000,  0.00000,  0.00000,  0.00000,1,   0.0,   1,1.0000,   0,1.0000,   0,1.0000,   0,1.0000
   50,    58,'1 ', 0.00055, 0.00586,0.01246,   0.00,   0.00,   0.00,  0.00000,  0.00000,  0.00000,  0.00000,1,   0.0,   1,1.0000,   0,1.0000,   0,1.0000,   0,1.0000
   52,    63,'1 ', 0.01070, 0.07905,0.36670,   0.00,   0.00,   0.00,  0.00000,  0.00000,  0.00000,  0.00000,1,   0.0,   1,1.0000,   0,1.0000,   0,1.0000,   0,1.0000
   53,    63,'1 ', 0.01070, 0.07905,0.36670,   0.00,   0.00,   0.00,  0.00000,  0.00000,  0.00000,  0.00000,1,   0.0,   1,1.0000,   0,1.0000,   0,1.0000,   0,1.0000
   57,    54,'1 ', 0.00073, 0.01025,0.02558,   0.00,   0.00,   0.00,  0.00000,  0.00000,  0.00000,  0.00000,1,   0.0,   1,1.0000,   0,1.0000,   0,1.0000,   0,1.0000
   57,    54,'2 ', 0.00073, 0.01025,0.02558,   0.00,   0.00,   0.00,  0.00000,  0.00000,  0.00000,  0.00000,1,   0.0,   1,1.0000,   0,1.0000,   0,1.0000,   0,1.0000
   55,    58,'1 ', 0.00119, 0.01244,0.02798,   0.00,   0.00,   0.00,  0.00000,  0.00000,  0.00000,  0.00000,1,   0.0,   1,1.0000,   0,1.0000,   0,1.0000,   0,1.0000
   55,    58,'2 ', 0.00119, 0.01244,0.02798,   0.00,   0.00,   0.00,  0.00000,  0.00000,  0.00000,  0.00000,1,   0.0,   1,1.0000,   0,1.0000,   0,1.0000,   0,1.0000
   62,    55,'1 ', 0.00128, 0.00979,0.02120,   0.00,   0.00,   0.00,  0.00000,  0.00000,  0.00000,  0.00000,1,   0.0,   1,1.0000,   0,1.0000,   0,1.0000,   0,1.0000
   57,    58,'1 ', 0.00110, 0.01189,0.02514,   0.00,   0.00,   0.00,  0.00000,  0.00000,  0.00000,  0.00000,1,   0.0,   1,1.0000,   0,1.0000,   0,1.0000,   0,1.0000
  137,    61,'1 ', 0.00140, 0.02640,0.10200,   0.00,   0.00,3070.00,  0.00000,  0.00000,  0.00000,  0.00000,1,   0.0,   1,1.0000,   0,1.0000,   0,1.0000,   0,1.0000
  150,    61,'1 ', 0.00065, 0.01187,0.04672,   0.00,   0.00,3070.00,  0.00000,  0.00000,  0.00000,  0.00000,1,   0.0,   1,1.0000,   0,1.0000,   0,1.0000,   0,1.0000
  150,    61,'2 ', 0.00065, 0.01187,0.04672,   0.00,   0.00,3070.00,  0.00000,  0.00000,  0.00000,  0.00000,1,   0.0,   1,1.0000,   0,1.0000,   0,1.0000,   0,1.0000
  139,    64,'1 ', 0.00179, 0.02524,0.53546,   0.00,   0.00,   0.00,  0.00000,  0.00000,  0.00000,  0.00000,1,   0.0,   1,1.0000,   0,1.0000,   0,1.0000,   0,1.0000
  139,    64,'2 ', 0.00179, 0.02524,0.53546,   0.00,   0.00,   0.00,  0.00000,  0.00000,  0.00000,  0.00000,1,   0.0,   1,1.0000,   0,1.0000,   0,1.0000,   0,1.0000
  142,    64,'1 ', 0.00020, 0.00410,0.29620,   0.00,   0.00,   0.00,  0.00000,  0.00000,  0.00000,  0.00000,1,   0.0,   1,1.0000,   0,1.0000,   0,1.0000,   0,1.0000
   78,    66,'1 ', 0.00070, 0.07400,4.87000,   0.00,   0.00,   0.00,  0.00000,  0.00000,  0.00000,  0.00000,1,   0.0,   1,1.0000,   0,1.0000,   0,1.0000,   0,1.0000
   68,    71,'1 ', 0.00006, 0.00131,0.00378,   0.00,   0.00,3020.00,  0.00000,  0.00000,  0.00000,  0.00000,1,   0.0,   1,1.0000,   0,1.0000,   0,1.0000,   0,1.0000
   68,    71,'2 ', 0.00006, 0.00116,0.00332,   0.00,   0.00,3020.00,  0.00000,  0.00000,  0.00000,  0.00000,1,   0.0,   1,1.0000,   0,1.0000,   0,1.0000,   0,1.0000
   69,    72,'1 ', 0.00001, 0.00030,0.01434,   0.00,   0.00,3450.00,  0.00000,  0.00000,  0.00000,  0.00000,1,   0.0,   1,1.0000,   0,1.0000,   0,1.0000,   0,1.0000
   69,    72,'2 ', 0.00001, 0.00030,0.01844,   0.00,   0.00,3450.00,  0.00000,  0.00000,  0.00000,  0.00000,1,   0.0,   1,1.0000,   0,1.0000,   0,1.0000,   0,1.0000
   69,    76,'1 ', 0.00023, 0.00451,0.33320,   0.00,   0.00,2175.00,  0.00000,  0.00000,  0.00000,  0.00000,1,   0.0,   1,1.0000,   0,1.0000,   0,1.0000,   0,1.0000
   69,    76,'2 ', 0.00020, 0.00446,0.30500,   0.00,   0.00,2175.00,  0.00000,  0.00000,  0.00000,  0.00000,1,   0.0,   1,1.0000,   0,1.0000,   0,1.0000,   0,1.0000
   75,    73,'1 ', 0.00179, 0.01405,3.68000,   0.00,   0.00,   0.00,  0.00000,  0.00000,  0.00000,  0.00000,1,   0.0,   1,1.0000,   0,1.0000,   0,1.0000,   0,1.0000
   78,    74,'1 ', 0.00113, 0.02069,1.85526,   0.00,   0.00,   0.00,  0.00000,  0.00000,  0.00000,  0.00000,1,   0.0,   1,1.0000,   0,1.0000,   0,1.0000,   0,1.0000
   75,    76,'1 ', 0.00196, 0.03304,1.88000,   0.00,   0.00,   0.00,  0.00000,  0.00000,  0.00000,  0.00000,1,   0.0,   1,1.0000,   0,1.0000,   0,1.0000,   0,1.0000
   75,    78,'1 ', 0.00142, 0.02258,1.88000,   0.00,   0.00,   0.00,  0.00000,  0.00000,  0.00000,  0.00000,1,   0.0,   1,1.0000,   0,1.0000,   0,1.0000,   0,1.0000
   78,    76,'1 ', 0.00120, 0.02316,1.71520,   0.00,   0.00,   0.00,  0.00000,  0.00000,  0.00000,  0.00000,1,   0.0,   1,1.0000,   0,1.0000,   0,1.0000,   0,1.0000
   78,    76,'2 ', 0.00030, 0.02000,3.60000,   0.00,   0.00,   0.00,  0.00000,  0.00000,  0.00000,  0.00000,1,   0.0,   1,1.0000,   0,1.0000,   0,1.0000,   0,1.0000
   82,    76,'1 ', 0.00063, 0.01412,1.09756,   0.00,   0.00,3450.00,  0.00000,  0.00000,  0.00000,  0.00000,1,   0.0,   1,1.0000,   0,1.0000,   0,1.0000,   0,1.0000
   82,    76,'2 ', 0.00109, 0.02408,1.55542,   0.00,   0.00,3020.00,  0.00000,  0.00000,  0.00000,  0.00000,1,   0.0,   1,1.0000,   0,1.0000,   0,1.0000,   0,1.0000
   82,    76,'3 ', 0.00108, 0.02409,1.55348,   0.00,   0.00,3020.00,  0.00000,  0.00000,  0.00000,  0.00000,1,   0.0,   1,1.0000,   0,1.0000,   0,1.0000,   0,1.0000
   80,    78,'1 ', 0.00020, 0.00820,1.30000,   0.00,   0.00,   0.00,  0.00000,  0.00000,  0.00000,  0.00000,1,   0.0,   1,1.0000,   0,1.0000,   0,1.0000,   0,1.0000
   80,    78,'2 ', 0.00020, 0.00820,1.30000,   0.00,   0.00,   0.00,  0.00000,  0.00000,  0.00000,  0.00000,1,   0.0,   1,1.0000,   0,1.0000,   0,1.0000,   0,1.0000
   81,    99,'1 ', 0.00264, 0.05356,5.29066,   0.00,   0.00,3600.00,  0.00000,  0.00000,  0.00000,  0.00000,1,   0.0,   1,1.0000,   0,1.0000,   0,1.0000,   0,1.0000
   81,   180,'1 ', 0.00000,-0.02667,0.00000,   0.00,   0.00,1732.00,  0.00000,  0.00000,  0.00000,  0.00000,1,   0.0,   1,1.0000,   0,1.0000,   0,1.0000,   0,1.0000
   82,    87,'1 ', 0.00041, 0.00737,0.72694,   0.00,   0.00,3450.00,  0.00000,  0.00000,  0.00000,  0.00000,1,   0.0,   1,1.0000,   0,1.0000,   0,1.0000,   0,1.0000
   82,    91,'1 ', 0.00066, 0.01266,0.95976,   0.00,   0.00,3020.00,  0.00000,  0.00000,  0.00000,  0.00000,1,   0.0,   1,1.0000,   0,1.0000,   0,1.0000,   0,1.0000
   82,    95,'1 ', 0.00066, 0.01266,0.95976,   0.00,   0.00,3020.00,  0.00000,  0.00000,  0.00000,  0.00000,1,   0.0,   1,1.0000,   0,1.0000,   0,1.0000,   0,1.0000
   83,    89,'1 ', 0.00072, 0.01382,1.27572,   0.00,   0.00,3600.00,  0.00000,  0.00000,  0.00000,  0.00000,1,   0.0,   1,1.0000,   0,1.0000,   0,1.0000,   0,1.0000
   94,    83,'1 ', 0.00078, 0.01502,1.13810,   0.00,   0.00,3020.00,  0.00000,  0.00000,  0.00000,  0.00000,1,   0.0,   1,1.0000,   0,1.0000,   0,1.0000,   0,1.0000
   98,    83,'1 ', 0.00074, 0.01413,1.06634,   0.00,   0.00,3020.00,  0.00000,  0.00000,  0.00000,  0.00000,1,   0.0,   1,1.0000,   0,1.0000,   0,1.0000,   0,1.0000
   83,   168,'1 ', 0.00000,-0.00720,0.00000,   0.00,   0.00,1800.00,  0.00000,  0.00000,  0.00000,  0.00000,1,   0.0,   1,1.0000,   0,1.0000,   0,1.0000,   0,1.0000
   83,   170,'1 ', 0.00000,-0.00864,0.00000,   0.00,   0.00,1800.00,  0.00000,  0.00000,  0.00000,  0.00000,1,   0.0,   1,1.0000,   0,1.0000,   0,1.0000,   0,1.0000
   83,   172,'1 ', 0.00000,-0.01000,0.00000,   0.00,   0.00,   0.00,  0.00000,  0.00000,  0.00000,  0.00000,1,   0.0,   1,1.0000,   0,1.0000,   0,1.0000,   0,1.0000
   99,    84,'1 ', 0.00000,-0.02667,0.00000,   0.00,   0.00,1732.00,  0.00000,  0.00000,  0.00000,  0.00000,1,   0.0,   1,1.0000,   0,1.0000,   0,1.0000,   0,1.0000
  156,    85,'1 ', 0.00620, 0.06730,1.11560,   0.00,   0.00,   0.00,  0.00000,  0.00000,  0.00000,  0.00000,1,   0.0,   1,1.0000,   0,1.0000,   0,1.0000,   0,1.0000
   88,    86,'1 ', 0.00060, 0.01036,1.01456,   0.00,   0.00,3450.00,  0.00000,  0.00000,  0.00000,  0.00000,1,   0.0,   1,1.0000,   0,1.0000,   0,1.0000,   0,1.0000
   90,    86,'1 ', 0.00012, 0.00238,0.21926,   0.00,   0.00,3600.00,  0.00000,  0.00000,  0.00000,  0.00000,1,   0.0,   1,1.0000,   0,1.0000,   0,1.0000,   0,1.0000
  180,    86,'1 ', 0.00122, 0.02373,2.20710,   0.00,   0.00,3600.00,  0.00000,  0.00000,  0.00000,  0.00000,1,   0.0,   1,1.0000,   0,1.0000,   0,1.0000,   0,1.0000
   87,    88,'1 ', 0.00000,-0.01263,0.00000,   0.00,   0.00,2000.00,  0.00000,  0.00000,  0.00000,  0.00000,1,   0.0,   1,1.0000,   0,1.0000,   0,1.0000,   0,1.0000
   89,    90,'1 ', 0.00000,-0.00858,0.00000,   0.00,   0.00,2000.00,  0.00000,  0.00000,  0.00000,  0.00000,1,   0.0,   1,1.0000,   0,1.0000,   0,1.0000,   0,1.0000
   91,    92,'1 ', 0.00000,-0.01263,0.00000,   0.00,   0.00,2400.00,  0.00000,  0.00000,  0.00000,  0.00000,1,   0.0,   1,1.0000,   0,1.0000,   0,1.0000,   0,1.0000
   92,    93,'1 ', 0.00074, 0.01428,1.08220,   0.00,   0.00,3020.00,  0.00000,  0.00000,  0.00000,  0.00000,1,   0.0,   1,1.0000,   0,1.0000,   0,1.0000,   0,1.0000
   93,    94,'1 ', 0.00000,-0.01263,0.00000,   0.00,   0.00,2400.00,  0.00000,  0.00000,  0.00000,  0.00000,1,   0.0,   1,1.0000,   0,1.0000,   0,1.0000,   0,1.0000
   95,    96,'1 ', 0.00000,-0.01263,0.00000,   0.00,   0.00,2000.00,  0.00000,  0.00000,  0.00000,  0.00000,1,   0.0,   1,1.0000,   0,1.0000,   0,1.0000,   0,1.0000
   96,    97,'1 ', 0.00074, 0.01428,1.08220,   0.00,   0.00,3020.00,  0.00000,  0.00000,  0.00000,  0.00000,1,   0.0,   1,1.0000,   0,1.0000,   0,1.0000,   0,1.0000
   97,    98,'1 ', 0.00000,-0.01263,0.00000,   0.00,   0.00,2000.00,  0.00000,  0.00000,  0.00000,  0.00000,1,   0.0,   1,1.0000,   0,1.0000,   0,1.0000,   0,1.0000
  101,   100,'1 ', 0.02482, 0.16938,0.20232,   0.00,   0.00, 838.00,  0.00000,  0.00000,  0.00000,  0.00000,1,   0.0,   1,1.0000,   0,1.0000,   0,1.0000,   0,1.0000
  100,   117,'1 ', 0.01480, 0.10101,0.12066,   0.00,   0.00, 838.00,  0.00000,  0.00000,  0.00000,  0.00000,1,   0.0,   1,1.0000,   0,1.0000,   0,1.0000,   0,1.0000
  101,   105,'1 ', 0.01382, 0.09268,0.11060,   0.00,   0.00, 747.00,  0.00000,  0.00000,  0.00000,  0.00000,1,   0.0,   1,1.0000,   0,1.0000,   0,1.0000,   0,1.0000
  101,   106,'1 ', 0.01668, 0.11381,0.13608,   0.00,   0.00, 838.00,  0.00000,  0.00000,  0.00000,  0.00000,1,   0.0,   1,1.0000,   0,1.0000,   0,1.0000,   0,1.0000
  101,   113,'1 ', 0.01113, 0.06678,0.07286,   0.00,   0.00, 752.00,  0.00000,  0.00000,  0.00000,  0.00000,1,   0.0,   1,1.0000,   0,1.0000,   0,1.0000,   0,1.0000
  101,   113,'2 ', 0.01050, 0.06540,0.06860,   0.00,   0.00, 602.00,  0.00000,  0.00000,  0.00000,  0.00000,1,   0.0,   1,1.0000,   0,1.0000,   0,1.0000,   0,1.0000
  101,   113,'3 ', 0.01105, 0.06642,0.07160,   0.00,   0.00, 752.00,  0.00000,  0.00000,  0.00000,  0.00000,1,   0.0,   1,1.0000,   0,1.0000,   0,1.0000,   0,1.0000
  101,   117,'1 ', 0.03903, 0.27403,0.31072,   0.00,   0.00, 747.00,  0.00000,  0.00000,  0.00000,  0.00000,1,   0.0,   1,1.0000,   0,1.0000,   0,1.0000,   0,1.0000
  104,   102,'1 ', 0.00079, 0.01937,1.32850,   0.00,   0.00,   0.00,  0.00000,  0.00000,  0.00000,  0.00000,1,   0.0,   1,1.0000,   0,1.0000,   0,1.0000,   0,1.0000
  102,   108,'1 ', 0.00087, 0.02087,1.45710,   0.00,   0.00,   0.00,  0.00000,  0.00000,  0.00000,  0.00000,1,   0.0,   1,1.0000,   0,1.0000,   0,1.0000,   0,1.0000
  102,   108,'2 ', 0.00087, 0.02087,1.45710,   0.00,   0.00,   0.00,  0.00000,  0.00000,  0.00000,  0.00000,1,   0.0,   1,1.0000,   0,1.0000,   0,1.0000,   0,1.0000
  107,   104,'1 ', 0.00083, 0.01985,0.00000,   0.00,   0.00,2450.00,  0.00000,  0.00000,  0.00000,  0.00000,1,   0.0,   1,1.0000,   0,1.0000,   0,1.0000,   0,1.0000
  134,   104,'1 ', 0.00093, 0.03644,1.38950,   0.00,   0.00,2450.00,  0.00000,  0.00000,  0.00000,  0.00000,1,   0.0,   1,1.0000,   0,1.0000,   0,1.0000,   0,1.0000
  104,   135,'1 ', 0.00072, 0.01600,1.08790,   0.00,   0.00,2450.00,  0.00000,  0.00000,  0.00000,  0.00000,1,   0.0,   1,1.0000,   0,1.0000,   0,1.0000,   0,1.0000
  105,   117,'1 ', 0.03058, 0.20460,0.24472,   0.00,   0.00, 747.00,  0.00000,  0.00000,  0.00000,  0.00000,1,   0.0,   1,1.0000,   0,1.0000,   0,1.0000,   0,1.0000
  106,   117,'1 ', 0.02235, 0.16106,0.18342,   0.00,   0.00, 838.00,  0.00000,  0.00000,  0.00000,  0.00000,1,   0.0,   1,1.0000,   0,1.0000,   0,1.0000,   0,1.0000
  107,   108,'1 ', 0.00153, 0.01470,0.00000,   0.00,   0.00,1560.00,  0.00000,  0.00000,  0.00000,  0.00000,1,   0.0,   1,1.0000,   0,1.0000,   0,1.0000,   0,1.0000
  110,   107,'1 ', 0.00053, 0.01297,0.00000,   0.00,   0.00,2450.00,  0.00000,  0.00000,  0.00000,  0.00000,1,   0.0,   1,1.0000,   0,1.0000,   0,1.0000,   0,1.0000
  133,   108,'1 ', 0.00002,-0.01331,0.00000,   0.00,   0.00,1800.00,  0.00000,  0.00000,  0.00000,  0.00000,1,   0.0,   1,1.0000,   0,1.0000,   0,1.0000,   0,1.0000
  135,   108,'1 ', 0.00002,-0.00998,0.00000,   0.00,   0.00,2450.00,  0.00000,  0.00000,  0.00000,  0.00000,1,   0.0,   1,1.0000,   0,1.0000,   0,1.0000,   0,1.0000
  108,   174,'1 ', 0.00000,-0.00935,0.00000,   0.00,   0.00,2134.00,  0.00000,  0.00000,  0.00000,  0.00000,1,   0.0,   1,1.0000,   0,1.0000,   0,1.0000,   0,1.0000
  108,   176,'1 ', 0.00000,-0.00944,0.00000,   0.00,   0.00,2134.00,  0.00000,  0.00000,  0.00000,  0.00000,1,   0.0,   1,1.0000,   0,1.0000,   0,1.0000,   0,1.0000
  108,   178,'1 ', 0.00000,-0.00935,0.00000,   0.00,   0.00,2134.00,  0.00000,  0.00000,  0.00000,  0.00000,1,   0.0,   1,1.0000,   0,1.0000,   0,1.0000,   0,1.0000
  111,   120,'1 ', 0.00000,-0.01000,0.00000,   0.00,   0.00,2667.00,  0.00000,  0.00000,  0.00000,  0.00000,1,   0.0,   1,1.0000,   0,1.0000,   0,1.0000,   0,1.0000
  173,   111,'1 ', 0.00000,-0.01000,0.00000,   0.00,   0.00,   0.00,  0.00000,  0.00000,  0.00000,  0.00000,1,   0.0,   1,1.0000,   0,1.0000,   0,1.0000,   0,1.0000
  114,   124,'1 ', 0.00002,-0.00998,0.00000,   0.00,   0.00,1800.00,  0.00000,  0.00000,  0.00000,  0.00000,1,   0.0,   1,1.0000,   0,1.0000,   0,1.0000,   0,1.0000
  114,   126,'1 ', 0.00002,-0.00998,0.00000,   0.00,   0.00,1800.00,  0.00000,  0.00000,  0.00000,  0.00000,1,   0.0,   1,1.0000,   0,1.0000,   0,1.0000,   0,1.0000
  169,   114,'1 ', 0.00000,-0.00720,0.00000,   0.00,   0.00,1800.00,  0.00000,  0.00000,  0.00000,  0.00000,1,   0.0,   1,1.0000,   0,1.0000,   0,1.0000,   0,1.0000
  171,   114,'1 ', 0.00000,-0.00720,0.00000,   0.00,   0.00,1800.00,  0.00000,  0.00000,  0.00000,  0.00000,1,   0.0,   1,1.0000,   0,1.0000,   0,1.0000,   0,1.0000
  125,   115,'1 ', 0.00001,-0.00666,0.00000,   0.00,   0.00,1800.00,  0.00000,  0.00000,  0.00000,  0.00000,1,   0.0,   1,1.0000,   0,1.0000,   0,1.0000,   0,1.0000
  127,   115,'1 ', 0.00001,-0.00666,0.00000,   0.00,   0.00,1800.00,  0.00000,  0.00000,  0.00000,  0.00000,1,   0.0,   1,1.0000,   0,1.0000,   0,1.0000,   0,1.0000
  115,   128,'1 ', 0.00001,-0.01120,0.00000,   0.00,   0.00,2667.00,  0.00000,  0.00000,  0.00000,  0.00000,1,   0.0,   1,1.0000,   0,1.0000,   0,1.0000,   0,1.0000
  115,   130,'1 ', 0.00001,-0.00720,0.00000,   0.00,   0.00,2667.00,  0.00000,  0.00000,  0.00000,  0.00000,1,   0.0,   1,1.0000,   0,1.0000,   0,1.0000,   0,1.0000
  123,   119,'1 ', 0.00000,-0.01000,0.00000,   0.00,   0.00,2667.00,  0.00000,  0.00000,  0.00000,  0.00000,1,   0.0,   1,1.0000,   0,1.0000,   0,1.0000,   0,1.0000
  129,   119,'1 ', 0.00001,-0.01120,0.00000,   0.00,   0.00,2667.00,  0.00000,  0.00000,  0.00000,  0.00000,1,   0.0,   1,1.0000,   0,1.0000,   0,1.0000,   0,1.0000
  131,   119,'1 ', 0.00001,-0.00360,0.00000,   0.00,   0.00,2667.00,  0.00000,  0.00000,  0.00000,  0.00000,1,   0.0,   1,1.0000,   0,1.0000,   0,1.0000,   0,1.0000
  119,   132,'1 ', 0.00001,-0.00755,0.00000,   0.00,   0.00,   0.00,  0.00000,  0.00000,  0.00000,  0.00000,1,   0.0,   1,1.0000,   0,1.0000,   0,1.0000,   0,1.0000
  119,   134,'1 ', 0.00001,-0.01098,0.00000,   0.00,   0.00,2450.00,  0.00000,  0.00000,  0.00000,  0.00000,1,   0.0,   1,1.0000,   0,1.0000,   0,1.0000,   0,1.0000
  120,   121,'1 ', 0.00076, 0.01952,1.82450,   0.00,   0.00,2894.00,  0.00000,  0.00000,  0.00000,  0.00000,1,   0.0,   1,1.0000,   0,1.0000,   0,1.0000,   0,1.0000
  121,   122,'1 ', 0.00000,-0.01000,0.00000,   0.00,   0.00,2667.00,  0.00000,  0.00000,  0.00000,  0.00000,1,   0.0,   1,1.0000,   0,1.0000,   0,1.0000,   0,1.0000
  122,   123,'1 ', 0.00082, 0.02119,1.98420,   0.00,   0.00,2894.00,  0.00000,  0.00000,  0.00000,  0.00000,1,   0.0,   1,1.0000,   0,1.0000,   0,1.0000,   0,1.0000
  124,   125,'1 ', 0.00140, 0.02338,1.47500,   0.00,   0.00,2396.00,  0.00000,  0.00000,  0.00000,  0.00000,1,   0.0,   1,1.0000,   0,1.0000,   0,1.0000,   0,1.0000
  126,   127,'1 ', 0.00140, 0.02338,1.47500,   0.00,   0.00,2396.00,  0.00000,  0.00000,  0.00000,  0.00000,1,   0.0,   1,1.0000,   0,1.0000,   0,1.0000,   0,1.0000
  128,   129,'1 ', 0.00154, 0.03409,2.31140,   0.00,   0.00,2450.00,  0.00000,  0.00000,  0.00000,  0.00000,1,   0.0,   1,1.0000,   0,1.0000,   0,1.0000,   0,1.0000
  130,   131,'1 ', 0.00095, 0.02102,1.42520,   0.00,   0.00,2450.00,  0.00000,  0.00000,  0.00000,  0.00000,1,   0.0,   1,1.0000,   0,1.0000,   0,1.0000,   0,1.0000
  132,   133,'1 ', 0.00165, 0.05719,2.47740,   0.00,   0.00,2450.00,  0.00000,  0.00000,  0.00000,  0.00000,1,   0.0,   1,1.0000,   0,1.0000,   0,1.0000,   0,1.0000
  136,   152,'1 ', 0.00042, 0.00905,0.66794,   0.00,   0.00,3600.00,  0.00000,  0.00000,  0.00000,  0.00000,1,   0.0,   1,1.0000,   0,1.0000,   0,1.0000,   0,1.0000
  137,   143,'1 ', 0.00190, 0.02580,0.09840,   0.00,   0.00,2320.00,  0.00000,  0.00000,  0.00000,  0.00000,1,   0.0,   1,1.0000,   0,1.0000,   0,1.0000,   0,1.0000
  137,   150,'1 ', 0.00845, 0.07034,0.15954,   0.00,   0.00,1160.00,  0.00000,  0.00000,  0.00000,  0.00000,1,   0.0,   1,1.0000,   0,1.0000,   0,1.0000,   0,1.0000
  139,   142,'1 ', 0.00193, 0.02779,4.67120,   0.00,   0.00,3600.00,  0.00000,  0.00000,  0.00000,  0.00000,1,   0.0,   1,1.0000,   0,1.0000,   0,1.0000,   0,1.0000
  147,   139,'1 ', 0.00056, 0.01415,1.04290,   0.00,   0.00,3600.00,  0.00000,  0.00000,  0.00000,  0.00000,1,   0.0,   1,1.0000,   0,1.0000,   0,1.0000,   0,1.0000
...